2
Energies (in J/mol): KE=   7.950306E-25, PE=  -6.307888E-08, TE=  -6.307888E-08, Step=    10, Time=          2.000 fs
Ar     2.48597126     2.84575386     1.19223297
Ar     1.90082283     7.04549599     1.43796358

2
Energies (in J/mol): KE=   3.180122E-24, PE=  -6.307888E-08, TE=  -6.307888E-08, Step=    20, Time=          4.000 fs
Ar     2.48597126     2.84575386     1.19223297
Ar     1.90082283     7.04549599     1.43796358

2
Energies (in J/mol): KE=   7.155275E-24, PE=  -6.307888E-08, TE=  -6.307888E-08, Step=    30, Time=          6.000 fs
Ar     2.48597126     2.84575386     1.19223297
Ar     1.90082283     7.04549599     1.43796358

2
Energies (in J/mol): KE=   1.272049E-23, PE=  -6.307888E-08, TE=  -6.307888E-08, Step=    40, Time=          8.000 fs
Ar     2.48597126     2.84575386     1.19223297
Ar     1.90082283     7.04549599     1.43796358

2
Energies (in J/mol): KE=   1.987576E-23, PE=  -6.307888E-08, TE=  -6.307888E-08, Step=    50, Time=         10.000 fs
Ar     2.48597126     2.84575386     1.19223297
Ar     1.90082283     7.04549599     1.43796358

2
Energies (in J/mol): KE=   2.862110E-23, PE=  -6.307888E-08, TE=  -6.307888E-08, Step=    60, Time=         12.000 fs
Ar     2.48597126     2.84575386     1.19223297
Ar     1.90082283     7.04549599     1.43796358

2
Energies (in J/mol): KE=   3.895650E-23, PE=  -6.307888E-08, TE=  -6.307888E-08, Step=    70, Time=         14.000 fs
Ar     2.48597126     2.84575386     1.19223297
Ar     1.90082283     7.04549599     1.43796358

2
Energies (in J/mol): KE=   5.088196E-23, PE=  -6.307888E-08, TE=  -6.307888E-08, Step=    80, Time=         16.000 fs
Ar     2.48597126     2.84575386     1.19223297
Ar     1.90082283     7.04549599     1.43796358

2
Energies (in J/mol): KE=   6.439748E-23, PE=  -6.307888E-08, TE=  -6.307888E-08, Step=    90, Time=         18.000 fs
Ar     2.48597126     2.84575386     1.19223297
Ar     1.90082283     7.04549599     1.43796358

2
Energies (in J/mol): KE=   7.950306E-23, PE=  -6.307888E-08, TE=  -6.307888E-08, Step=   100, Time=         20.000 fs
Ar     2.48597126     2.84575386     1.19223297
Ar     1.90082283     7.04549599     1.43796358

2
Energies (in J/mol): KE=   9.619870E-23, PE=  -6.307888E-08, TE=  -6.307888E-08, Step=   110, Time=         22.000 fs
Ar     2.48597126     2.84575386     1.19223297
Ar     1.90082283     7.04549599     1.43796358

2
Energies (in J/mol): KE=   1.144844E-22, PE=  -6.307888E-08, TE=  -6.307888E-08, Step=   120, Time=         24.000 fs
Ar     2.48597126     2.84575386     1.19223297
Ar     1.90082283     7.04549599     1.43796358

2
Energies (in J/mol): KE=   1.343602E-22, PE=  -6.307888E-08, TE=  -6.307888E-08, Step=   130, Time=         26.000 fs
Ar     2.48597126     2.84575386     1.19223297
Ar     1.90082283     7.04549599     1.43796358

2
Energies (in J/mol): KE=   1.558260E-22, PE=  -6.307888E-08, TE=  -6.307888E-08, Step=   140, Time=         28.000 fs
Ar     2.48597126     2.84575386     1.19223297
Ar     1.90082283     7.04549599     1.43796358

2
Energies (in J/mol): KE=   1.788819E-22, PE=  -6.307888E-08, TE=  -6.307888E-08, Step=   150, Time=         30.000 fs
Ar     2.48597126     2.84575386     1.19223297
Ar     1.90082283     7.04549599     1.43796358

2
Energies (in J/mol): KE=   2.035278E-22, PE=  -6.307888E-08, TE=  -6.307888E-08, Step=   160, Time=         32.000 fs
Ar     2.48597126     2.84575386     1.19223297
Ar     1.90082283     7.04549599     1.43796358

2
Energies (in J/mol): KE=   2.297638E-22, PE=  -6.307888E-08, TE=  -6.307888E-08, Step=   170, Time=         34.000 fs
Ar     2.48597126     2.84575386     1.19223297
Ar     1.90082283     7.04549599     1.43796358

2
Energies (in J/mol): KE=   2.575899E-22, PE=  -6.307888E-08, TE=  -6.307888E-08, Step=   180, Time=         36.000 fs
Ar     2.48597126     2.84575386     1.19223297
Ar     1.90082283     7.04549599     1.43796358

2
Energies (in J/mol): KE=   2.870060E-22, PE=  -6.307888E-08, TE=  -6.307888E-08, Step=   190, Time=         38.000 fs
Ar     2.48597126     2.84575386     1.19223297
Ar     1.90082283     7.04549599     1.43796358

2
Energies (in J/mol): KE=   3.180122E-22, PE=  -6.307888E-08, TE=  -6.307888E-08, Step=   200, Time=         40.000 fs
Ar     2.48597126     2.84575386     1.19223297
Ar     1.90082283     7.04549599     1.43796358

2
Energies (in J/mol): KE=   3.506085E-22, PE=  -6.307888E-08, TE=  -6.307888E-08, Step=   210, Time=         42.000 fs
Ar     2.48597126     2.84575386     1.19223297
Ar     1.90082283     7.04549599     1.43796358

2
Energies (in J/mol): KE=   3.847948E-22, PE=  -6.307888E-08, TE=  -6.307888E-08, Step=   220, Time=         44.000 fs
Ar     2.48597126     2.84575386     1.19223297
Ar     1.90082283     7.04549599     1.43796358

2
Energies (in J/mol): KE=   4.205712E-22, PE=  -6.307888E-08, TE=  -6.307888E-08, Step=   230, Time=         46.000 fs
Ar     2.48597126     2.84575386     1.19223297
Ar     1.90082283     7.04549599     1.43796358

2
Energies (in J/mol): KE=   4.579376E-22, PE=  -6.307888E-08, TE=  -6.307888E-08, Step=   240, Time=         48.000 fs
Ar     2.48597126     2.84575386     1.19223297
Ar     1.90082283     7.04549599     1.43796358

2
Energies (in J/mol): KE=   4.968941E-22, PE=  -6.307888E-08, TE=  -6.307888E-08, Step=   250, Time=         50.000 fs
Ar     2.48597126     2.84575386     1.19223297
Ar     1.90082283     7.04549599     1.43796358

2
Energies (in J/mol): KE=   5.374407E-22, PE=  -6.307888E-08, TE=  -6.307888E-08, Step=   260, Time=         52.000 fs
Ar     2.48597126     2.84575386     1.19223297
Ar     1.90082283     7.04549599     1.43796358

2
Energies (in J/mol): KE=   5.795773E-22, PE=  -6.307888E-08, TE=  -6.307888E-08, Step=   270, Time=         54.000 fs
Ar     2.48597126     2.84575386     1.19223297
Ar     1.90082283     7.04549599     1.43796358

2
Energies (in J/mol): KE=   6.233040E-22, PE=  -6.307888E-08, TE=  -6.307888E-08, Step=   280, Time=         56.000 fs
Ar     2.48597126     2.84575386     1.19223297
Ar     1.90082283     7.04549599     1.43796358

2
Energies (in J/mol): KE=   6.686207E-22, PE=  -6.307888E-08, TE=  -6.307888E-08, Step=   290, Time=         58.000 fs
Ar     2.48597126     2.84575386     1.19223297
Ar     1.90082283     7.04549599     1.43796358

2
Energies (in J/mol): KE=   7.155275E-22, PE=  -6.307888E-08, TE=  -6.307888E-08, Step=   300, Time=         60.000 fs
Ar     2.48597126     2.84575386     1.19223297
Ar     1.90082283     7.04549599     1.43796358

2
Energies (in J/mol): KE=   7.640244E-22, PE=  -6.307888E-08, TE=  -6.307888E-08, Step=   310, Time=         62.000 fs
Ar     2.48597126     2.84575386     1.19223297
Ar     1.90082283     7.04549599     1.43796358

2
Energies (in J/mol): KE=   8.141113E-22, PE=  -6.307888E-08, TE=  -6.307888E-08, Step=   320, Time=         64.000 fs
Ar     2.48597126     2.84575386     1.19223297
Ar     1.90082283     7.04549599     1.43796358

2
Energies (in J/mol): KE=   8.657883E-22, PE=  -6.307888E-08, TE=  -6.307888E-08, Step=   330, Time=         66.000 fs
Ar     2.48597126     2.84575386     1.19223297
Ar     1.90082283     7.04549599     1.43796358

2
Energies (in J/mol): KE=   9.190554E-22, PE=  -6.307888E-08, TE=  -6.307888E-08, Step=   340, Time=         68.000 fs
Ar     2.48597126     2.84575386     1.19223297
Ar     1.90082283     7.04549599     1.43796358

2
Energies (in J/mol): KE=   9.739125E-22, PE=  -6.307888E-08, TE=  -6.307888E-08, Step=   350, Time=         70.000 fs
Ar     2.48597126     2.84575386     1.19223297
Ar     1.90082283     7.04549599     1.43796358

2
Energies (in J/mol): KE=   1.030360E-21, PE=  -6.307888E-08, TE=  -6.307888E-08, Step=   360, Time=         72.000 fs
Ar     2.48597126     2.84575386     1.19223297
Ar     1.90082283     7.04549599     1.43796358

2
Energies (in J/mol): KE=   1.088397E-21, PE=  -6.307888E-08, TE=  -6.307888E-08, Step=   370, Time=         74.000 fs
Ar     2.48597126     2.84575386     1.19223297
Ar     1.90082283     7.04549599     1.43796358

2
Energies (in J/mol): KE=   1.148024E-21, PE=  -6.307888E-08, TE=  -6.307888E-08, Step=   380, Time=         76.000 fs
Ar     2.48597126     2.84575386     1.19223297
Ar     1.90082283     7.04549599     1.43796358

2
Energies (in J/mol): KE=   1.209242E-21, PE=  -6.307888E-08, TE=  -6.307888E-08, Step=   390, Time=         78.000 fs
Ar     2.48597126     2.84575386     1.19223297
Ar     1.90082283     7.04549599     1.43796358

2
Energies (in J/mol): KE=   1.272049E-21, PE=  -6.307888E-08, TE=  -6.307888E-08, Step=   400, Time=         80.000 fs
Ar     2.48597126     2.84575386     1.19223297
Ar     1.90082283     7.04549599     1.43796358

2
Energies (in J/mol): KE=   1.336446E-21, PE=  -6.307888E-08, TE=  -6.307888E-08, Step=   410, Time=         82.000 fs
Ar     2.48597126     2.84575386     1.19223297
Ar     1.90082283     7.04549599     1.43796358

2
Energies (in J/mol): KE=   1.402434E-21, PE=  -6.307888E-08, TE=  -6.307888E-08, Step=   420, Time=         84.000 fs
Ar     2.48597126     2.84575386     1.19223297
Ar     1.90082283     7.04549599     1.43796358

2
Energies (in J/mol): KE=   1.470012E-21, PE=  -6.307888E-08, TE=  -6.307888E-08, Step=   430, Time=         86.000 fs
Ar     2.48597126     2.84575386     1.19223297
Ar     1.90082283     7.04549599     1.43796358

2
Energies (in J/mol): KE=   1.539179E-21, PE=  -6.307888E-08, TE=  -6.307888E-08, Step=   440, Time=         88.000 fs
Ar     2.48597126     2.84575386     1.19223297
Ar     1.90082283     7.04549599     1.43796358

2
Energies (in J/mol): KE=   1.609937E-21, PE=  -6.307888E-08, TE=  -6.307888E-08, Step=   450, Time=         90.000 fs
Ar     2.48597126     2.84575386     1.19223297
Ar     1.90082283     7.04549599     1.43796358

2
Energies (in J/mol): KE=   1.682285E-21, PE=  -6.307888E-08, TE=  -6.307888E-08, Step=   460, Time=         92.000 fs
Ar     2.48597126     2.84575386     1.19223297
Ar     1.90082283     7.04549599     1.43796358

2
Energies (in J/mol): KE=   1.756223E-21, PE=  -6.307888E-08, TE=  -6.307888E-08, Step=   470, Time=         94.000 fs
Ar     2.48597126     2.84575386     1.19223297
Ar     1.90082283     7.04549599     1.43796358

2
Energies (in J/mol): KE=   1.831750E-21, PE=  -6.307888E-08, TE=  -6.307888E-08, Step=   480, Time=         96.000 fs
Ar     2.48597126     2.84575386     1.19223297
Ar     1.90082283     7.04549599     1.43796358

2
Energies (in J/mol): KE=   1.908868E-21, PE=  -6.307888E-08, TE=  -6.307888E-08, Step=   490, Time=         98.000 fs
Ar     2.48597126     2.84575386     1.19223297
Ar     1.90082283     7.04549599     1.43796358

2
Energies (in J/mol): KE=   1.987576E-21, PE=  -6.307888E-08, TE=  -6.307888E-08, Step=   500, Time=        100.000 fs
Ar     2.48597126     2.84575386     1.19223297
Ar     1.90082283     7.04549599     1.43796358

2
Energies (in J/mol): KE=   2.067875E-21, PE=  -6.307888E-08, TE=  -6.307888E-08, Step=   510, Time=        102.000 fs
Ar     2.48597126     2.84575386     1.19223297
Ar     1.90082283     7.04549599     1.43796358

2
Energies (in J/mol): KE=   2.149763E-21, PE=  -6.307888E-08, TE=  -6.307888E-08, Step=   520, Time=        104.000 fs
Ar     2.48597126     2.84575386     1.19223297
Ar     1.90082283     7.04549599     1.43796358

2
Energies (in J/mol): KE=   2.233241E-21, PE=  -6.307888E-08, TE=  -6.307888E-08, Step=   530, Time=        106.000 fs
Ar     2.48597126     2.84575386     1.19223297
Ar     1.90082283     7.04549599     1.43796358

2
Energies (in J/mol): KE=   2.318309E-21, PE=  -6.307888E-08, TE=  -6.307888E-08, Step=   540, Time=        108.000 fs
Ar     2.48597126     2.84575386     1.19223297
Ar     1.90082283     7.04549599     1.43796358

2
Energies (in J/mol): KE=   2.404968E-21, PE=  -6.307888E-08, TE=  -6.307888E-08, Step=   550, Time=        110.000 fs
Ar     2.48597126     2.84575386     1.19223297
Ar     1.90082283     7.04549599     1.43796358

2
Energies (in J/mol): KE=   2.493216E-21, PE=  -6.307888E-08, TE=  -6.307888E-08, Step=   560, Time=        112.000 fs
Ar     2.48597126     2.84575386     1.19223297
Ar     1.90082283     7.04549599     1.43796358

2
Energies (in J/mol): KE=   2.583054E-21, PE=  -6.307888E-08, TE=  -6.307888E-08, Step=   570, Time=        114.000 fs
Ar     2.48597126     2.84575386     1.19223297
Ar     1.90082283     7.04549599     1.43796358

2
Energies (in J/mol): KE=   2.674483E-21, PE=  -6.307888E-08, TE=  -6.307888E-08, Step=   580, Time=        116.000 fs
Ar     2.48597126     2.84575386     1.19223297
Ar     1.90082283     7.04549599     1.43796358

2
Energies (in J/mol): KE=   2.767501E-21, PE=  -6.307888E-08, TE=  -6.307888E-08, Step=   590, Time=        118.000 fs
Ar     2.48597126     2.84575386     1.19223297
Ar     1.90082283     7.04549599     1.43796358

2
Energies (in J/mol): KE=   2.862110E-21, PE=  -6.307888E-08, TE=  -6.307888E-08, Step=   600, Time=        120.000 fs
Ar     2.48597126     2.84575386     1.19223297
Ar     1.90082283     7.04549599     1.43796358

2
Energies (in J/mol): KE=   2.958309E-21, PE=  -6.307888E-08, TE=  -6.307888E-08, Step=   610, Time=        122.000 fs
Ar     2.48597126     2.84575386     1.19223297
Ar     1.90082283     7.04549599     1.43796358

2
Energies (in J/mol): KE=   3.056098E-21, PE=  -6.307888E-08, TE=  -6.307888E-08, Step=   620, Time=        124.000 fs
Ar     2.48597126     2.84575386     1.19223297
Ar     1.90082283     7.04549599     1.43796358

2
Energies (in J/mol): KE=   3.155476E-21, PE=  -6.307888E-08, TE=  -6.307888E-08, Step=   630, Time=        126.000 fs
Ar     2.48597126     2.84575386     1.19223297
Ar     1.90082283     7.04549599     1.43796358

2
Energies (in J/mol): KE=   3.256445E-21, PE=  -6.307888E-08, TE=  -6.307888E-08, Step=   640, Time=        128.000 fs
Ar     2.48597126     2.84575386     1.19223297
Ar     1.90082283     7.04549599     1.43796358

2
Energies (in J/mol): KE=   3.359004E-21, PE=  -6.307888E-08, TE=  -6.307888E-08, Step=   650, Time=        130.000 fs
Ar     2.48597126     2.84575386     1.19223297
Ar     1.90082283     7.04549599     1.43796358

2
Energies (in J/mol): KE=   3.463153E-21, PE=  -6.307888E-08, TE=  -6.307888E-08, Step=   660, Time=        132.000 fs
Ar     2.48597126     2.84575386     1.19223297
Ar     1.90082283     7.04549599     1.43796358

2
Energies (in J/mol): KE=   3.568892E-21, PE=  -6.307888E-08, TE=  -6.307888E-08, Step=   670, Time=        134.000 fs
Ar     2.48597126     2.84575386     1.19223297
Ar     1.90082283     7.04549599     1.43796358

2
Energies (in J/mol): KE=   3.676221E-21, PE=  -6.307888E-08, TE=  -6.307888E-08, Step=   680, Time=        136.000 fs
Ar     2.48597126     2.84575386     1.19223297
Ar     1.90082283     7.04549599     1.43796358

2
Energies (in J/mol): KE=   3.785141E-21, PE=  -6.307888E-08, TE=  -6.307888E-08, Step=   690, Time=        138.000 fs
Ar     2.48597126     2.84575386     1.19223297
Ar     1.90082283     7.04549599     1.43796358

2
Energies (in J/mol): KE=   3.895650E-21, PE=  -6.307888E-08, TE=  -6.307888E-08, Step=   700, Time=        140.000 fs
Ar     2.48597126     2.84575386     1.19223297
Ar     1.90082283     7.04549599     1.43796358

2
Energies (in J/mol): KE=   4.007749E-21, PE=  -6.307888E-08, TE=  -6.307888E-08, Step=   710, Time=        142.000 fs
Ar     2.48597126     2.84575386     1.19223297
Ar     1.90082283     7.04549599     1.43796358

2
Energies (in J/mol): KE=   4.121439E-21, PE=  -6.307888E-08, TE=  -6.307888E-08, Step=   720, Time=        144.000 fs
Ar     2.48597126     2.84575386     1.19223297
Ar     1.90082283     7.04549599     1.43796358

2
Energies (in J/mol): KE=   4.236718E-21, PE=  -6.307888E-08, TE=  -6.307888E-08, Step=   730, Time=        146.000 fs
Ar     2.48597126     2.84575386     1.19223297
Ar     1.90082283     7.04549599     1.43796358

2
Energies (in J/mol): KE=   4.353587E-21, PE=  -6.307888E-08, TE=  -6.307888E-08, Step=   740, Time=        148.000 fs
Ar     2.48597126     2.84575386     1.19223297
Ar     1.90082283     7.04549599     1.43796358

2
Energies (in J/mol): KE=   4.472047E-21, PE=  -6.307888E-08, TE=  -6.307888E-08, Step=   750, Time=        150.000 fs
Ar     2.48597126     2.84575386     1.19223297
Ar     1.90082283     7.04549599     1.43796358

2
Energies (in J/mol): KE=   4.592097E-21, PE=  -6.307888E-08, TE=  -6.307888E-08, Step=   760, Time=        152.000 fs
Ar     2.48597126     2.84575386     1.19223297
Ar     1.90082283     7.04549599     1.43796358

2
Energies (in J/mol): KE=   4.713736E-21, PE=  -6.307888E-08, TE=  -6.307888E-08, Step=   770, Time=        154.000 fs
Ar     2.48597126     2.84575386     1.19223297
Ar     1.90082283     7.04549599     1.43796358

2
Energies (in J/mol): KE=   4.836966E-21, PE=  -6.307888E-08, TE=  -6.307888E-08, Step=   780, Time=        156.000 fs
Ar     2.48597126     2.84575386     1.19223297
Ar     1.90082283     7.04549599     1.43796358

2
Energies (in J/mol): KE=   4.961786E-21, PE=  -6.307888E-08, TE=  -6.307888E-08, Step=   790, Time=        158.000 fs
Ar     2.48597126     2.84575386     1.19223297
Ar     1.90082283     7.04549599     1.43796358

2
Energies (in J/mol): KE=   5.088196E-21, PE=  -6.307888E-08, TE=  -6.307888E-08, Step=   800, Time=        160.000 fs
Ar     2.48597126     2.84575386     1.19223297
Ar     1.90082283     7.04549599     1.43796358

2
Energies (in J/mol): KE=   5.216196E-21, PE=  -6.307888E-08, TE=  -6.307888E-08, Step=   810, Time=        162.000 fs
Ar     2.48597126     2.84575386     1.19223297
Ar     1.90082283     7.04549599     1.43796358

2
Energies (in J/mol): KE=   5.345786E-21, PE=  -6.307888E-08, TE=  -6.307888E-08, Step=   820, Time=        164.000 fs
Ar     2.48597126     2.84575386     1.19223297
Ar     1.90082283     7.04549599     1.43796358

2
Energies (in J/mol): KE=   5.476966E-21, PE=  -6.307888E-08, TE=  -6.307888E-08, Step=   830, Time=        166.000 fs
Ar     2.48597126     2.84575386     1.19223297
Ar     1.90082283     7.04549599     1.43796358

2
Energies (in J/mol): KE=   5.609736E-21, PE=  -6.307888E-08, TE=  -6.307888E-08, Step=   840, Time=        168.000 fs
Ar     2.48597126     2.84575386     1.19223297
Ar     1.90082283     7.04549599     1.43796358

2
Energies (in J/mol): KE=   5.744096E-21, PE=  -6.307888E-08, TE=  -6.307888E-08, Step=   850, Time=        170.000 fs
Ar     2.48597126     2.84575386     1.19223297
Ar     1.90082283     7.04549599     1.43796358

2
Energies (in J/mol): KE=   5.880046E-21, PE=  -6.307888E-08, TE=  -6.307888E-08, Step=   860, Time=        172.000 fs
Ar     2.48597126     2.84575386     1.19223297
Ar     1.90082283     7.04549599     1.43796358

2
Energies (in J/mol): KE=   6.017586E-21, PE=  -6.307888E-08, TE=  -6.307888E-08, Step=   870, Time=        174.000 fs
Ar     2.48597126     2.84575386     1.19223297
Ar     1.90082283     7.04549599     1.43796358

2
Energies (in J/mol): KE=   6.156717E-21, PE=  -6.307888E-08, TE=  -6.307888E-08, Step=   880, Time=        176.000 fs
Ar     2.48597126     2.84575386     1.19223297
Ar     1.90082283     7.04549599     1.43796358

2
Energies (in J/mol): KE=   6.297437E-21, PE=  -6.307888E-08, TE=  -6.307888E-08, Step=   890, Time=        178.000 fs
Ar     2.48597126     2.84575386     1.19223297
Ar     1.90082283     7.04549599     1.43796358

2
Energies (in J/mol): KE=   6.439748E-21, PE=  -6.307888E-08, TE=  -6.307888E-08, Step=   900, Time=        180.000 fs
Ar     2.48597126     2.84575386     1.19223297
Ar     1.90082283     7.04549599     1.43796358

2
Energies (in J/mol): KE=   6.583648E-21, PE=  -6.307888E-08, TE=  -6.307888E-08, Step=   910, Time=        182.000 fs
Ar     2.48597126     2.84575386     1.19223297
Ar     1.90082283     7.04549599     1.43796358

2
Energies (in J/mol): KE=   6.729139E-21, PE=  -6.307888E-08, TE=  -6.307888E-08, Step=   920, Time=        184.000 fs
Ar     2.48597126     2.84575386     1.19223297
Ar     1.90082283     7.04549599     1.43796358

2
Energies (in J/mol): KE=   6.876220E-21, PE=  -6.307888E-08, TE=  -6.307888E-08, Step=   930, Time=        186.000 fs
Ar     2.48597126     2.84575386     1.19223297
Ar     1.90082283     7.04549599     1.43796358

2
Energies (in J/mol): KE=   7.024890E-21, PE=  -6.307888E-08, TE=  -6.307888E-08, Step=   940, Time=        188.000 fs
Ar     2.48597126     2.84575386     1.19223297
Ar     1.90082283     7.04549599     1.43796358

2
Energies (in J/mol): KE=   7.175151E-21, PE=  -6.307888E-08, TE=  -6.307888E-08, Step=   950, Time=        190.000 fs
Ar     2.48597126     2.84575386     1.19223297
Ar     1.90082283     7.04549599     1.43796358

2
Energies (in J/mol): KE=   7.327002E-21, PE=  -6.307888E-08, TE=  -6.307888E-08, Step=   960, Time=        192.000 fs
Ar     2.48597126     2.84575386     1.19223297
Ar     1.90082283     7.04549599     1.43796358

2
Energies (in J/mol): KE=   7.480443E-21, PE=  -6.307888E-08, TE=  -6.307888E-08, Step=   970, Time=        194.000 fs
Ar     2.48597126     2.84575386     1.19223297
Ar     1.90082283     7.04549599     1.43796358

2
Energies (in J/mol): KE=   7.635474E-21, PE=  -6.307888E-08, TE=  -6.307888E-08, Step=   980, Time=        196.000 fs
Ar     2.48597126     2.84575386     1.19223297
Ar     1.90082283     7.04549599     1.43796358

2
Energies (in J/mol): KE=   7.792095E-21, PE=  -6.307888E-08, TE=  -6.307888E-08, Step=   990, Time=        198.000 fs
Ar     2.48597126     2.84575386     1.19223297
Ar     1.90082283     7.04549599     1.43796358

2
Energies (in J/mol): KE=   7.950306E-21, PE=  -6.307888E-08, TE=  -6.307888E-08, Step=  1000, Time=        200.000 fs
Ar     2.48597126     2.84575386     1.19223297
Ar     1.90082283     7.04549599     1.43796358

