2
Energies (in J/mol): KE=   1.987576E-23, PE=  -6.307888E-08, TE=  -6.307888E-08, Step=    10, Time=         10.000 fs
Ar     2.48597126     2.84575386     1.19223297
Ar     1.90082283     7.04549599     1.43796358

2
Energies (in J/mol): KE=   7.950306E-23, PE=  -6.307888E-08, TE=  -6.307888E-08, Step=    20, Time=         20.000 fs
Ar     2.48597126     2.84575386     1.19223297
Ar     1.90082283     7.04549599     1.43796358

2
Energies (in J/mol): KE=   1.788819E-22, PE=  -6.307888E-08, TE=  -6.307888E-08, Step=    30, Time=         30.000 fs
Ar     2.48597126     2.84575386     1.19223297
Ar     1.90082283     7.04549599     1.43796358

2
Energies (in J/mol): KE=   3.180122E-22, PE=  -6.307888E-08, TE=  -6.307888E-08, Step=    40, Time=         40.000 fs
Ar     2.48597126     2.84575386     1.19223297
Ar     1.90082283     7.04549599     1.43796358

2
Energies (in J/mol): KE=   4.968941E-22, PE=  -6.307888E-08, TE=  -6.307888E-08, Step=    50, Time=         50.000 fs
Ar     2.48597126     2.84575386     1.19223297
Ar     1.90082283     7.04549599     1.43796358

2
Energies (in J/mol): KE=   7.155275E-22, PE=  -6.307888E-08, TE=  -6.307888E-08, Step=    60, Time=         60.000 fs
Ar     2.48597126     2.84575386     1.19223297
Ar     1.90082283     7.04549599     1.43796358

2
Energies (in J/mol): KE=   9.739125E-22, PE=  -6.307888E-08, TE=  -6.307888E-08, Step=    70, Time=         70.000 fs
Ar     2.48597126     2.84575386     1.19223297
Ar     1.90082283     7.04549599     1.43796358

2
Energies (in J/mol): KE=   1.272049E-21, PE=  -6.307888E-08, TE=  -6.307888E-08, Step=    80, Time=         80.000 fs
Ar     2.48597126     2.84575386     1.19223297
Ar     1.90082283     7.04549599     1.43796358

2
Energies (in J/mol): KE=   1.609937E-21, PE=  -6.307888E-08, TE=  -6.307888E-08, Step=    90, Time=         90.000 fs
Ar     2.48597126     2.84575386     1.19223297
Ar     1.90082283     7.04549599     1.43796358

2
Energies (in J/mol): KE=   1.987576E-21, PE=  -6.307888E-08, TE=  -6.307888E-08, Step=   100, Time=        100.000 fs
Ar     2.48597126     2.84575386     1.19223297
Ar     1.90082283     7.04549599     1.43796358

2
Energies (in J/mol): KE=   2.404968E-21, PE=  -6.307888E-08, TE=  -6.307888E-08, Step=   110, Time=        110.000 fs
Ar     2.48597126     2.84575386     1.19223297
Ar     1.90082283     7.04549599     1.43796358

2
Energies (in J/mol): KE=   2.862110E-21, PE=  -6.307888E-08, TE=  -6.307888E-08, Step=   120, Time=        120.000 fs
Ar     2.48597126     2.84575386     1.19223297
Ar     1.90082283     7.04549599     1.43796358

2
Energies (in J/mol): KE=   3.359004E-21, PE=  -6.307888E-08, TE=  -6.307888E-08, Step=   130, Time=        130.000 fs
Ar     2.48597126     2.84575386     1.19223297
Ar     1.90082283     7.04549599     1.43796358

2
Energies (in J/mol): KE=   3.895650E-21, PE=  -6.307888E-08, TE=  -6.307888E-08, Step=   140, Time=        140.000 fs
Ar     2.48597126     2.84575386     1.19223297
Ar     1.90082283     7.04549599     1.43796358

2
Energies (in J/mol): KE=   4.472047E-21, PE=  -6.307888E-08, TE=  -6.307888E-08, Step=   150, Time=        150.000 fs
Ar     2.48597126     2.84575386     1.19223297
Ar     1.90082283     7.04549599     1.43796358

2
Energies (in J/mol): KE=   5.088196E-21, PE=  -6.307888E-08, TE=  -6.307888E-08, Step=   160, Time=        160.000 fs
Ar     2.48597126     2.84575386     1.19223297
Ar     1.90082283     7.04549599     1.43796358

2
Energies (in J/mol): KE=   5.744096E-21, PE=  -6.307888E-08, TE=  -6.307888E-08, Step=   170, Time=        170.000 fs
Ar     2.48597126     2.84575386     1.19223297
Ar     1.90082283     7.04549599     1.43796358

2
Energies (in J/mol): KE=   6.439748E-21, PE=  -6.307888E-08, TE=  -6.307888E-08, Step=   180, Time=        180.000 fs
Ar     2.48597126     2.84575386     1.19223297
Ar     1.90082283     7.04549599     1.43796358

2
Energies (in J/mol): KE=   7.175151E-21, PE=  -6.307888E-08, TE=  -6.307888E-08, Step=   190, Time=        190.000 fs
Ar     2.48597126     2.84575386     1.19223297
Ar     1.90082283     7.04549599     1.43796358

2
Energies (in J/mol): KE=   7.950306E-21, PE=  -6.307888E-08, TE=  -6.307888E-08, Step=   200, Time=        200.000 fs
Ar     2.48597126     2.84575386     1.19223297
Ar     1.90082283     7.04549599     1.43796358

2
Energies (in J/mol): KE=   8.765212E-21, PE=  -6.307888E-08, TE=  -6.307888E-08, Step=   210, Time=        210.000 fs
Ar     2.48597126     2.84575386     1.19223297
Ar     1.90082283     7.04549599     1.43796358

2
Energies (in J/mol): KE=   9.619870E-21, PE=  -6.307888E-08, TE=  -6.307888E-08, Step=   220, Time=        220.000 fs
Ar     2.48597126     2.84575386     1.19223297
Ar     1.90082283     7.04549599     1.43796358

2
Energies (in J/mol): KE=   1.051428E-20, PE=  -6.307888E-08, TE=  -6.307888E-08, Step=   230, Time=        230.000 fs
Ar     2.48597126     2.84575386     1.19223297
Ar     1.90082283     7.04549599     1.43796358

2
Energies (in J/mol): KE=   1.144844E-20, PE=  -6.307888E-08, TE=  -6.307888E-08, Step=   240, Time=        240.000 fs
Ar     2.48597126     2.84575386     1.19223297
Ar     1.90082283     7.04549599     1.43796358

2
Energies (in J/mol): KE=   1.242235E-20, PE=  -6.307888E-08, TE=  -6.307888E-08, Step=   250, Time=        250.000 fs
Ar     2.48597126     2.84575386     1.19223297
Ar     1.90082283     7.04549599     1.43796358

2
Energies (in J/mol): KE=   1.343602E-20, PE=  -6.307888E-08, TE=  -6.307888E-08, Step=   260, Time=        260.000 fs
Ar     2.48597126     2.84575386     1.19223297
Ar     1.90082283     7.04549599     1.43796358

2
Energies (in J/mol): KE=   1.448943E-20, PE=  -6.307888E-08, TE=  -6.307888E-08, Step=   270, Time=        270.000 fs
Ar     2.48597126     2.84575386     1.19223297
Ar     1.90082283     7.04549599     1.43796358

2
Energies (in J/mol): KE=   1.558260E-20, PE=  -6.307888E-08, TE=  -6.307888E-08, Step=   280, Time=        280.000 fs
Ar     2.48597126     2.84575386     1.19223297
Ar     1.90082283     7.04549599     1.43796358

2
Energies (in J/mol): KE=   1.671552E-20, PE=  -6.307888E-08, TE=  -6.307888E-08, Step=   290, Time=        290.000 fs
Ar     2.48597126     2.84575386     1.19223297
Ar     1.90082283     7.04549599     1.43796358

2
Energies (in J/mol): KE=   1.788819E-20, PE=  -6.307888E-08, TE=  -6.307888E-08, Step=   300, Time=        300.000 fs
Ar     2.48597126     2.84575386     1.19223297
Ar     1.90082283     7.04549599     1.43796358

2
Energies (in J/mol): KE=   1.910061E-20, PE=  -6.307888E-08, TE=  -6.307888E-08, Step=   310, Time=        310.000 fs
Ar     2.48597126     2.84575386     1.19223297
Ar     1.90082283     7.04549599     1.43796358

2
Energies (in J/mol): KE=   2.035278E-20, PE=  -6.307888E-08, TE=  -6.307888E-08, Step=   320, Time=        320.000 fs
Ar     2.48597126     2.84575386     1.19223297
Ar     1.90082283     7.04549599     1.43796358

2
Energies (in J/mol): KE=   2.164471E-20, PE=  -6.307888E-08, TE=  -6.307888E-08, Step=   330, Time=        330.000 fs
Ar     2.48597126     2.84575386     1.19223297
Ar     1.90082283     7.04549599     1.43796358

2
Energies (in J/mol): KE=   2.297638E-20, PE=  -6.307888E-08, TE=  -6.307888E-08, Step=   340, Time=        340.000 fs
Ar     2.48597126     2.84575386     1.19223297
Ar     1.90082283     7.04549599     1.43796358

2
Energies (in J/mol): KE=   2.434781E-20, PE=  -6.307888E-08, TE=  -6.307888E-08, Step=   350, Time=        350.000 fs
Ar     2.48597126     2.84575386     1.19223297
Ar     1.90082283     7.04549599     1.43796358

2
Energies (in J/mol): KE=   2.575899E-20, PE=  -6.307888E-08, TE=  -6.307888E-08, Step=   360, Time=        360.000 fs
Ar     2.48597126     2.84575386     1.19223297
Ar     1.90082283     7.04549599     1.43796358

2
Energies (in J/mol): KE=   2.720992E-20, PE=  -6.307888E-08, TE=  -6.307888E-08, Step=   370, Time=        370.000 fs
Ar     2.48597126     2.84575386     1.19223297
Ar     1.90082283     7.04549599     1.43796358

2
Energies (in J/mol): KE=   2.870060E-20, PE=  -6.307888E-08, TE=  -6.307888E-08, Step=   380, Time=        380.000 fs
Ar     2.48597126     2.84575386     1.19223297
Ar     1.90082283     7.04549599     1.43796358

2
Energies (in J/mol): KE=   3.023104E-20, PE=  -6.307888E-08, TE=  -6.307888E-08, Step=   390, Time=        390.000 fs
Ar     2.48597126     2.84575386     1.19223297
Ar     1.90082283     7.04549599     1.43796358

2
Energies (in J/mol): KE=   3.180122E-20, PE=  -6.307888E-08, TE=  -6.307888E-08, Step=   400, Time=        400.000 fs
Ar     2.48597126     2.84575386     1.19223297
Ar     1.90082283     7.04549599     1.43796358

2
Energies (in J/mol): KE=   3.341116E-20, PE=  -6.307888E-08, TE=  -6.307888E-08, Step=   410, Time=        410.000 fs
Ar     2.48597126     2.84575386     1.19223297
Ar     1.90082283     7.04549599     1.43796358

2
Energies (in J/mol): KE=   3.506085E-20, PE=  -6.307888E-08, TE=  -6.307888E-08, Step=   420, Time=        420.000 fs
Ar     2.48597126     2.84575386     1.19223297
Ar     1.90082283     7.04549599     1.43796358

2
Energies (in J/mol): KE=   3.675029E-20, PE=  -6.307888E-08, TE=  -6.307888E-08, Step=   430, Time=        430.000 fs
Ar     2.48597126     2.84575386     1.19223297
Ar     1.90082283     7.04549599     1.43796358

2
Energies (in J/mol): KE=   3.847948E-20, PE=  -6.307888E-08, TE=  -6.307888E-08, Step=   440, Time=        440.000 fs
Ar     2.48597126     2.84575386     1.19223297
Ar     1.90082283     7.04549599     1.43796358

2
Energies (in J/mol): KE=   4.024842E-20, PE=  -6.307888E-08, TE=  -6.307888E-08, Step=   450, Time=        450.000 fs
Ar     2.48597126     2.84575386     1.19223297
Ar     1.90082283     7.04549599     1.43796358

2
Energies (in J/mol): KE=   4.205712E-20, PE=  -6.307888E-08, TE=  -6.307888E-08, Step=   460, Time=        460.000 fs
Ar     2.48597126     2.84575386     1.19223297
Ar     1.90082283     7.04549599     1.43796358

2
Energies (in J/mol): KE=   4.390556E-20, PE=  -6.307888E-08, TE=  -6.307888E-08, Step=   470, Time=        470.000 fs
Ar     2.48597126     2.84575386     1.19223297
Ar     1.90082283     7.04549599     1.43796358

2
Energies (in J/mol): KE=   4.579376E-20, PE=  -6.307888E-08, TE=  -6.307888E-08, Step=   480, Time=        480.000 fs
Ar     2.48597126     2.84575386     1.19223297
Ar     1.90082283     7.04549599     1.43796358

2
Energies (in J/mol): KE=   4.772171E-20, PE=  -6.307888E-08, TE=  -6.307888E-08, Step=   490, Time=        490.000 fs
Ar     2.48597126     2.84575386     1.19223297
Ar     1.90082283     7.04549599     1.43796358

2
Energies (in J/mol): KE=   4.968941E-20, PE=  -6.307888E-08, TE=  -6.307888E-08, Step=   500, Time=        500.000 fs
Ar     2.48597126     2.84575386     1.19223297
Ar     1.90082283     7.04549599     1.43796358

2
Energies (in J/mol): KE=   5.169686E-20, PE=  -6.307888E-08, TE=  -6.307888E-08, Step=   510, Time=        510.000 fs
Ar     2.48597126     2.84575386     1.19223297
Ar     1.90082283     7.04549599     1.43796358

2
Energies (in J/mol): KE=   5.374407E-20, PE=  -6.307888E-08, TE=  -6.307888E-08, Step=   520, Time=        520.000 fs
Ar     2.48597126     2.84575386     1.19223297
Ar     1.90082283     7.04549599     1.43796358

2
Energies (in J/mol): KE=   5.583102E-20, PE=  -6.307888E-08, TE=  -6.307888E-08, Step=   530, Time=        530.000 fs
Ar     2.48597126     2.84575386     1.19223297
Ar     1.90082283     7.04549599     1.43796358

2
Energies (in J/mol): KE=   5.795773E-20, PE=  -6.307888E-08, TE=  -6.307888E-08, Step=   540, Time=        540.000 fs
Ar     2.48597126     2.84575386     1.19223297
Ar     1.90082283     7.04549599     1.43796358

2
Energies (in J/mol): KE=   6.012419E-20, PE=  -6.307888E-08, TE=  -6.307888E-08, Step=   550, Time=        550.000 fs
Ar     2.48597126     2.84575386     1.19223297
Ar     1.90082283     7.04549599     1.43796358

2
Energies (in J/mol): KE=   6.233040E-20, PE=  -6.307888E-08, TE=  -6.307888E-08, Step=   560, Time=        560.000 fs
Ar     2.48597126     2.84575386     1.19223297
Ar     1.90082283     7.04549599     1.43796358

2
Energies (in J/mol): KE=   6.457636E-20, PE=  -6.307888E-08, TE=  -6.307888E-08, Step=   570, Time=        570.000 fs
Ar     2.48597126     2.84575386     1.19223297
Ar     1.90082283     7.04549599     1.43796358

2
Energies (in J/mol): KE=   6.686207E-20, PE=  -6.307888E-08, TE=  -6.307888E-08, Step=   580, Time=        580.000 fs
Ar     2.48597126     2.84575386     1.19223297
Ar     1.90082283     7.04549599     1.43796358

2
Energies (in J/mol): KE=   6.918754E-20, PE=  -6.307888E-08, TE=  -6.307888E-08, Step=   590, Time=        590.000 fs
Ar     2.48597126     2.84575386     1.19223297
Ar     1.90082283     7.04549599     1.43796358

2
Energies (in J/mol): KE=   7.155275E-20, PE=  -6.307888E-08, TE=  -6.307888E-08, Step=   600, Time=        600.000 fs
Ar     2.48597126     2.84575386     1.19223297
Ar     1.90082283     7.04549599     1.43796358

2
Energies (in J/mol): KE=   7.395772E-20, PE=  -6.307888E-08, TE=  -6.307888E-08, Step=   610, Time=        610.000 fs
Ar     2.48597126     2.84575386     1.19223297
Ar     1.90082283     7.04549599     1.43796358

2
Energies (in J/mol): KE=   7.640244E-20, PE=  -6.307888E-08, TE=  -6.307888E-08, Step=   620, Time=        620.000 fs
Ar     2.48597126     2.84575386     1.19223297
Ar     1.90082283     7.04549599     1.43796358

2
Energies (in J/mol): KE=   7.888691E-20, PE=  -6.307888E-08, TE=  -6.307888E-08, Step=   630, Time=        630.000 fs
Ar     2.48597126     2.84575386     1.19223297
Ar     1.90082283     7.04549599     1.43796358

2
Energies (in J/mol): KE=   8.141113E-20, PE=  -6.307888E-08, TE=  -6.307888E-08, Step=   640, Time=        640.000 fs
Ar     2.48597126     2.84575386     1.19223297
Ar     1.90082283     7.04549599     1.43796358

2
Energies (in J/mol): KE=   8.397511E-20, PE=  -6.307888E-08, TE=  -6.307888E-08, Step=   650, Time=        650.000 fs
Ar     2.48597126     2.84575386     1.19223297
Ar     1.90082283     7.04549599     1.43796358

2
Energies (in J/mol): KE=   8.657883E-20, PE=  -6.307888E-08, TE=  -6.307888E-08, Step=   660, Time=        660.000 fs
Ar     2.48597126     2.84575386     1.19223297
Ar     1.90082283     7.04549599     1.43796358

2
Energies (in J/mol): KE=   8.922231E-20, PE=  -6.307888E-08, TE=  -6.307888E-08, Step=   670, Time=        670.000 fs
Ar     2.48597126     2.84575386     1.19223297
Ar     1.90082283     7.04549599     1.43796358

2
Energies (in J/mol): KE=   9.190554E-20, PE=  -6.307888E-08, TE=  -6.307888E-08, Step=   680, Time=        680.000 fs
Ar     2.48597126     2.84575386     1.19223297
Ar     1.90082283     7.04549599     1.43796358

2
Energies (in J/mol): KE=   9.462852E-20, PE=  -6.307888E-08, TE=  -6.307888E-08, Step=   690, Time=        690.000 fs
Ar     2.48597126     2.84575386     1.19223297
Ar     1.90082283     7.04549599     1.43796358

2
Energies (in J/mol): KE=   9.739125E-20, PE=  -6.307888E-08, TE=  -6.307888E-08, Step=   700, Time=        700.000 fs
Ar     2.48597126     2.84575386     1.19223297
Ar     1.90082283     7.04549599     1.43796358

2
Energies (in J/mol): KE=   1.001937E-19, PE=  -6.307888E-08, TE=  -6.307888E-08, Step=   710, Time=        710.000 fs
Ar     2.48597126     2.84575386     1.19223297
Ar     1.90082283     7.04549599     1.43796358

2
Energies (in J/mol): KE=   1.030360E-19, PE=  -6.307888E-08, TE=  -6.307888E-08, Step=   720, Time=        720.000 fs
Ar     2.48597126     2.84575386     1.19223297
Ar     1.90082283     7.04549599     1.43796358

2
Energies (in J/mol): KE=   1.059179E-19, PE=  -6.307888E-08, TE=  -6.307888E-08, Step=   730, Time=        730.000 fs
Ar     2.48597126     2.84575386     1.19223297
Ar     1.90082283     7.04549599     1.43796358

2
Energies (in J/mol): KE=   1.088397E-19, PE=  -6.307888E-08, TE=  -6.307888E-08, Step=   740, Time=        740.000 fs
Ar     2.48597126     2.84575386     1.19223297
Ar     1.90082283     7.04549599     1.43796358

2
Energies (in J/mol): KE=   1.118012E-19, PE=  -6.307888E-08, TE=  -6.307888E-08, Step=   750, Time=        750.000 fs
Ar     2.48597126     2.84575386     1.19223297
Ar     1.90082283     7.04549599     1.43796358

2
Energies (in J/mol): KE=   1.148024E-19, PE=  -6.307888E-08, TE=  -6.307888E-08, Step=   760, Time=        760.000 fs
Ar     2.48597126     2.84575386     1.19223297
Ar     1.90082283     7.04549599     1.43796358

2
Energies (in J/mol): KE=   1.178434E-19, PE=  -6.307888E-08, TE=  -6.307888E-08, Step=   770, Time=        770.000 fs
Ar     2.48597126     2.84575386     1.19223297
Ar     1.90082283     7.04549599     1.43796358

2
Energies (in J/mol): KE=   1.209242E-19, PE=  -6.307888E-08, TE=  -6.307888E-08, Step=   780, Time=        780.000 fs
Ar     2.48597126     2.84575386     1.19223297
Ar     1.90082283     7.04549599     1.43796358

2
Energies (in J/mol): KE=   1.240446E-19, PE=  -6.307888E-08, TE=  -6.307888E-08, Step=   790, Time=        790.000 fs
Ar     2.48597126     2.84575386     1.19223297
Ar     1.90082283     7.04549599     1.43796358

2
Energies (in J/mol): KE=   1.272049E-19, PE=  -6.307888E-08, TE=  -6.307888E-08, Step=   800, Time=        800.000 fs
Ar     2.48597126     2.84575386     1.19223297
Ar     1.90082283     7.04549599     1.43796358

2
Energies (in J/mol): KE=   1.304049E-19, PE=  -6.307888E-08, TE=  -6.307888E-08, Step=   810, Time=        810.000 fs
Ar     2.48597126     2.84575386     1.19223297
Ar     1.90082283     7.04549599     1.43796358

2
Energies (in J/mol): KE=   1.336446E-19, PE=  -6.307888E-08, TE=  -6.307888E-08, Step=   820, Time=        820.000 fs
Ar     2.48597126     2.84575386     1.19223297
Ar     1.90082283     7.04549599     1.43796358

2
Energies (in J/mol): KE=   1.369241E-19, PE=  -6.307888E-08, TE=  -6.307888E-08, Step=   830, Time=        830.000 fs
Ar     2.48597126     2.84575386     1.19223297
Ar     1.90082283     7.04549599     1.43796358

2
Energies (in J/mol): KE=   1.402434E-19, PE=  -6.307888E-08, TE=  -6.307888E-08, Step=   840, Time=        840.000 fs
Ar     2.48597126     2.84575386     1.19223297
Ar     1.90082283     7.04549599     1.43796358

2
Energies (in J/mol): KE=   1.436024E-19, PE=  -6.307888E-08, TE=  -6.307888E-08, Step=   850, Time=        850.000 fs
Ar     2.48597126     2.84575386     1.19223297
Ar     1.90082283     7.04549599     1.43796358

2
Energies (in J/mol): KE=   1.470012E-19, PE=  -6.307888E-08, TE=  -6.307888E-08, Step=   860, Time=        860.000 fs
Ar     2.48597126     2.84575386     1.19223297
Ar     1.90082283     7.04549599     1.43796358

2
Energies (in J/mol): KE=   1.504397E-19, PE=  -6.307888E-08, TE=  -6.307888E-08, Step=   870, Time=        870.000 fs
Ar     2.48597126     2.84575386     1.19223297
Ar     1.90082283     7.04549599     1.43796358

2
Energies (in J/mol): KE=   1.539179E-19, PE=  -6.307888E-08, TE=  -6.307888E-08, Step=   880, Time=        880.000 fs
Ar     2.48597126     2.84575386     1.19223297
Ar     1.90082283     7.04549599     1.43796358

2
Energies (in J/mol): KE=   1.574359E-19, PE=  -6.307888E-08, TE=  -6.307888E-08, Step=   890, Time=        890.000 fs
Ar     2.48597126     2.84575386     1.19223297
Ar     1.90082283     7.04549599     1.43796358

2
Energies (in J/mol): KE=   1.609937E-19, PE=  -6.307888E-08, TE=  -6.307888E-08, Step=   900, Time=        900.000 fs
Ar     2.48597126     2.84575386     1.19223297
Ar     1.90082283     7.04549599     1.43796358

2
Energies (in J/mol): KE=   1.645912E-19, PE=  -6.307888E-08, TE=  -6.307888E-08, Step=   910, Time=        910.000 fs
Ar     2.48597126     2.84575386     1.19223297
Ar     1.90082283     7.04549599     1.43796358

2
Energies (in J/mol): KE=   1.682285E-19, PE=  -6.307888E-08, TE=  -6.307888E-08, Step=   920, Time=        920.000 fs
Ar     2.48597126     2.84575386     1.19223297
Ar     1.90082283     7.04549599     1.43796358

2
Energies (in J/mol): KE=   1.719055E-19, PE=  -6.307888E-08, TE=  -6.307888E-08, Step=   930, Time=        930.000 fs
Ar     2.48597126     2.84575386     1.19223297
Ar     1.90082283     7.04549599     1.43796358

2
Energies (in J/mol): KE=   1.756223E-19, PE=  -6.307888E-08, TE=  -6.307888E-08, Step=   940, Time=        940.000 fs
Ar     2.48597126     2.84575386     1.19223297
Ar     1.90082283     7.04549599     1.43796358

2
Energies (in J/mol): KE=   1.793788E-19, PE=  -6.307888E-08, TE=  -6.307888E-08, Step=   950, Time=        950.000 fs
Ar     2.48597126     2.84575386     1.19223297
Ar     1.90082283     7.04549599     1.43796358

2
Energies (in J/mol): KE=   1.831750E-19, PE=  -6.307888E-08, TE=  -6.307888E-08, Step=   960, Time=        960.000 fs
Ar     2.48597126     2.84575386     1.19223297
Ar     1.90082283     7.04549599     1.43796358

2
Energies (in J/mol): KE=   1.870111E-19, PE=  -6.307888E-08, TE=  -6.307888E-08, Step=   970, Time=        970.000 fs
Ar     2.48597126     2.84575386     1.19223297
Ar     1.90082283     7.04549599     1.43796358

2
Energies (in J/mol): KE=   1.908868E-19, PE=  -6.307888E-08, TE=  -6.307888E-08, Step=   980, Time=        980.000 fs
Ar     2.48597126     2.84575386     1.19223297
Ar     1.90082283     7.04549599     1.43796358

2
Energies (in J/mol): KE=   1.948024E-19, PE=  -6.307888E-08, TE=  -6.307888E-08, Step=   990, Time=        990.000 fs
Ar     2.48597126     2.84575386     1.19223297
Ar     1.90082283     7.04549599     1.43796358

2
Energies (in J/mol): KE=   1.987576E-19, PE=  -6.307888E-08, TE=  -6.307888E-08, Step=  1000, Time=       1000.000 fs
Ar     2.48597126     2.84575386     1.19223297
Ar     1.90082283     7.04549599     1.43796358

