2
Energies (in J/mol): KE=   1.414363E-15, PE=  -6.307888E-08, TE=  -6.307888E-08, Step=    10, Time=          0.010 fs
Ar     2.48597126     2.84575386     1.19223297
Ar     1.90082283     7.04549599     1.43796358

2
Energies (in J/mol): KE=   1.422156E-15, PE=  -6.307888E-08, TE=  -6.307888E-08, Step=    20, Time=          0.020 fs
Ar     2.48597126     2.84575386     1.19223297
Ar     1.90082283     7.04549599     1.43796358

2
Energies (in J/mol): KE=   1.429988E-15, PE=  -6.307888E-08, TE=  -6.307888E-08, Step=    30, Time=          0.030 fs
Ar     2.48597126     2.84575386     1.19223297
Ar     1.90082283     7.04549599     1.43796358

2
Energies (in J/mol): KE=   1.437861E-15, PE=  -6.307888E-08, TE=  -6.307888E-08, Step=    40, Time=          0.040 fs
Ar     2.48597126     2.84575386     1.19223297
Ar     1.90082283     7.04549599     1.43796358

2
Energies (in J/mol): KE=   1.445773E-15, PE=  -6.307888E-08, TE=  -6.307888E-08, Step=    50, Time=          0.050 fs
Ar     2.48597126     2.84575386     1.19223297
Ar     1.90082283     7.04549599     1.43796358

2
Energies (in J/mol): KE=   1.453725E-15, PE=  -6.307888E-08, TE=  -6.307888E-08, Step=    60, Time=          0.060 fs
Ar     2.48597126     2.84575386     1.19223297
Ar     1.90082283     7.04549599     1.43796358

2
Energies (in J/mol): KE=   1.461716E-15, PE=  -6.307888E-08, TE=  -6.307888E-08, Step=    70, Time=          0.070 fs
Ar     2.48597126     2.84575386     1.19223297
Ar     1.90082283     7.04549599     1.43796358

2
Energies (in J/mol): KE=   1.469747E-15, PE=  -6.307888E-08, TE=  -6.307888E-08, Step=    80, Time=          0.080 fs
Ar     2.48597126     2.84575386     1.19223297
Ar     1.90082283     7.04549599     1.43796358

2
Energies (in J/mol): KE=   1.477819E-15, PE=  -6.307888E-08, TE=  -6.307888E-08, Step=    90, Time=          0.090 fs
Ar     2.48597126     2.84575386     1.19223297
Ar     1.90082283     7.04549599     1.43796358

2
Energies (in J/mol): KE=   1.485929E-15, PE=  -6.307888E-08, TE=  -6.307888E-08, Step=   100, Time=          0.100 fs
Ar     2.48597126     2.84575386     1.19223297
Ar     1.90082283     7.04549599     1.43796358

2
Energies (in J/mol): KE=   1.494080E-15, PE=  -6.307888E-08, TE=  -6.307888E-08, Step=   110, Time=          0.110 fs
Ar     2.48597126     2.84575386     1.19223297
Ar     1.90082283     7.04549599     1.43796358

2
Energies (in J/mol): KE=   1.502270E-15, PE=  -6.307888E-08, TE=  -6.307888E-08, Step=   120, Time=          0.120 fs
Ar     2.48597126     2.84575386     1.19223297
Ar     1.90082283     7.04549599     1.43796358

2
Energies (in J/mol): KE=   1.510500E-15, PE=  -6.307888E-08, TE=  -6.307888E-08, Step=   130, Time=          0.130 fs
Ar     2.48597126     2.84575386     1.19223297
Ar     1.90082283     7.04549599     1.43796358

2
Energies (in J/mol): KE=   1.518770E-15, PE=  -6.307888E-08, TE=  -6.307888E-08, Step=   140, Time=          0.140 fs
Ar     2.48597126     2.84575386     1.19223297
Ar     1.90082283     7.04549599     1.43796358

2
Energies (in J/mol): KE=   1.527080E-15, PE=  -6.307888E-08, TE=  -6.307888E-08, Step=   150, Time=          0.150 fs
Ar     2.48597126     2.84575386     1.19223297
Ar     1.90082283     7.04549599     1.43796358

2
Energies (in J/mol): KE=   1.535429E-15, PE=  -6.307888E-08, TE=  -6.307888E-08, Step=   160, Time=          0.160 fs
Ar     2.48597126     2.84575386     1.19223297
Ar     1.90082283     7.04549599     1.43796358

2
Energies (in J/mol): KE=   1.543818E-15, PE=  -6.307888E-08, TE=  -6.307888E-08, Step=   170, Time=          0.170 fs
Ar     2.48597126     2.84575386     1.19223297
Ar     1.90082283     7.04549599     1.43796358

2
Energies (in J/mol): KE=   1.552247E-15, PE=  -6.307888E-08, TE=  -6.307888E-08, Step=   180, Time=          0.180 fs
Ar     2.48597126     2.84575386     1.19223297
Ar     1.90082283     7.04549599     1.43796358

2
Energies (in J/mol): KE=   1.560716E-15, PE=  -6.307888E-08, TE=  -6.307888E-08, Step=   190, Time=          0.190 fs
Ar     2.48597126     2.84575386     1.19223297
Ar     1.90082283     7.04549599     1.43796358

2
Energies (in J/mol): KE=   1.569224E-15, PE=  -6.307888E-08, TE=  -6.307888E-08, Step=   200, Time=          0.200 fs
Ar     2.48597126     2.84575386     1.19223297
Ar     1.90082283     7.04549599     1.43796358

2
Energies (in J/mol): KE=   1.577772E-15, PE=  -6.307888E-08, TE=  -6.307888E-08, Step=   210, Time=          0.210 fs
Ar     2.48597126     2.84575386     1.19223297
Ar     1.90082283     7.04549599     1.43796358

2
Energies (in J/mol): KE=   1.586360E-15, PE=  -6.307888E-08, TE=  -6.307888E-08, Step=   220, Time=          0.220 fs
Ar     2.48597126     2.84575386     1.19223297
Ar     1.90082283     7.04549599     1.43796358

2
Energies (in J/mol): KE=   1.594988E-15, PE=  -6.307888E-08, TE=  -6.307888E-08, Step=   230, Time=          0.230 fs
Ar     2.48597126     2.84575386     1.19223297
Ar     1.90082283     7.04549599     1.43796358

2
Energies (in J/mol): KE=   1.603655E-15, PE=  -6.307888E-08, TE=  -6.307888E-08, Step=   240, Time=          0.240 fs
Ar     2.48597126     2.84575386     1.19223297
Ar     1.90082283     7.04549599     1.43796358

2
Energies (in J/mol): KE=   1.612362E-15, PE=  -6.307888E-08, TE=  -6.307888E-08, Step=   250, Time=          0.250 fs
Ar     2.48597126     2.84575386     1.19223297
Ar     1.90082283     7.04549599     1.43796358

2
Energies (in J/mol): KE=   1.621109E-15, PE=  -6.307888E-08, TE=  -6.307888E-08, Step=   260, Time=          0.260 fs
Ar     2.48597126     2.84575386     1.19223297
Ar     1.90082283     7.04549599     1.43796358

2
Energies (in J/mol): KE=   1.629896E-15, PE=  -6.307888E-08, TE=  -6.307888E-08, Step=   270, Time=          0.270 fs
Ar     2.48597126     2.84575386     1.19223297
Ar     1.90082283     7.04549599     1.43796358

2
Energies (in J/mol): KE=   1.638722E-15, PE=  -6.307888E-08, TE=  -6.307888E-08, Step=   280, Time=          0.280 fs
Ar     2.48597126     2.84575386     1.19223297
Ar     1.90082283     7.04549599     1.43796358

2
Energies (in J/mol): KE=   1.647588E-15, PE=  -6.307888E-08, TE=  -6.307888E-08, Step=   290, Time=          0.290 fs
Ar     2.48597126     2.84575386     1.19223297
Ar     1.90082283     7.04549599     1.43796358

2
Energies (in J/mol): KE=   1.656494E-15, PE=  -6.307888E-08, TE=  -6.307888E-08, Step=   300, Time=          0.300 fs
Ar     2.48597126     2.84575386     1.19223297
Ar     1.90082283     7.04549599     1.43796358

2
Energies (in J/mol): KE=   1.665440E-15, PE=  -6.307888E-08, TE=  -6.307888E-08, Step=   310, Time=          0.310 fs
Ar     2.48597126     2.84575386     1.19223297
Ar     1.90082283     7.04549599     1.43796358

2
Energies (in J/mol): KE=   1.674425E-15, PE=  -6.307888E-08, TE=  -6.307888E-08, Step=   320, Time=          0.320 fs
Ar     2.48597126     2.84575386     1.19223297
Ar     1.90082283     7.04549599     1.43796358

2
Energies (in J/mol): KE=   1.683450E-15, PE=  -6.307888E-08, TE=  -6.307888E-08, Step=   330, Time=          0.330 fs
Ar     2.48597126     2.84575386     1.19223297
Ar     1.90082283     7.04549599     1.43796358

2
Energies (in J/mol): KE=   1.692515E-15, PE=  -6.307888E-08, TE=  -6.307888E-08, Step=   340, Time=          0.340 fs
Ar     2.48597126     2.84575386     1.19223297
Ar     1.90082283     7.04549599     1.43796358

2
Energies (in J/mol): KE=   1.701620E-15, PE=  -6.307888E-08, TE=  -6.307888E-08, Step=   350, Time=          0.350 fs
Ar     2.48597126     2.84575386     1.19223297
Ar     1.90082283     7.04549599     1.43796358

2
Energies (in J/mol): KE=   1.710764E-15, PE=  -6.307888E-08, TE=  -6.307888E-08, Step=   360, Time=          0.360 fs
Ar     2.48597126     2.84575386     1.19223297
Ar     1.90082283     7.04549599     1.43796358

2
Energies (in J/mol): KE=   1.719948E-15, PE=  -6.307888E-08, TE=  -6.307888E-08, Step=   370, Time=          0.370 fs
Ar     2.48597126     2.84575386     1.19223297
Ar     1.90082283     7.04549599     1.43796358

2
Energies (in J/mol): KE=   1.729172E-15, PE=  -6.307888E-08, TE=  -6.307888E-08, Step=   380, Time=          0.380 fs
Ar     2.48597126     2.84575386     1.19223297
Ar     1.90082283     7.04549599     1.43796358

2
Energies (in J/mol): KE=   1.738436E-15, PE=  -6.307888E-08, TE=  -6.307888E-08, Step=   390, Time=          0.390 fs
Ar     2.48597126     2.84575386     1.19223297
Ar     1.90082283     7.04549599     1.43796358

2
Energies (in J/mol): KE=   1.747739E-15, PE=  -6.307888E-08, TE=  -6.307888E-08, Step=   400, Time=          0.400 fs
Ar     2.48597126     2.84575386     1.19223297
Ar     1.90082283     7.04549599     1.43796358

2
Energies (in J/mol): KE=   1.757082E-15, PE=  -6.307888E-08, TE=  -6.307888E-08, Step=   410, Time=          0.410 fs
Ar     2.48597126     2.84575386     1.19223297
Ar     1.90082283     7.04549599     1.43796358

2
Energies (in J/mol): KE=   1.766465E-15, PE=  -6.307888E-08, TE=  -6.307888E-08, Step=   420, Time=          0.420 fs
Ar     2.48597126     2.84575386     1.19223297
Ar     1.90082283     7.04549599     1.43796358

2
Energies (in J/mol): KE=   1.775888E-15, PE=  -6.307888E-08, TE=  -6.307888E-08, Step=   430, Time=          0.430 fs
Ar     2.48597126     2.84575386     1.19223297
Ar     1.90082283     7.04549599     1.43796358

2
Energies (in J/mol): KE=   1.785350E-15, PE=  -6.307888E-08, TE=  -6.307888E-08, Step=   440, Time=          0.440 fs
Ar     2.48597126     2.84575386     1.19223297
Ar     1.90082283     7.04549599     1.43796358

2
Energies (in J/mol): KE=   1.794852E-15, PE=  -6.307888E-08, TE=  -6.307888E-08, Step=   450, Time=          0.450 fs
Ar     2.48597126     2.84575386     1.19223297
Ar     1.90082283     7.04549599     1.43796358

2
Energies (in J/mol): KE=   1.804394E-15, PE=  -6.307888E-08, TE=  -6.307888E-08, Step=   460, Time=          0.460 fs
Ar     2.48597126     2.84575386     1.19223297
Ar     1.90082283     7.04549599     1.43796358

2
Energies (in J/mol): KE=   1.813976E-15, PE=  -6.307888E-08, TE=  -6.307888E-08, Step=   470, Time=          0.470 fs
Ar     2.48597126     2.84575386     1.19223297
Ar     1.90082283     7.04549599     1.43796358

2
Energies (in J/mol): KE=   1.823597E-15, PE=  -6.307888E-08, TE=  -6.307888E-08, Step=   480, Time=          0.480 fs
Ar     2.48597126     2.84575386     1.19223297
Ar     1.90082283     7.04549599     1.43796358

2
Energies (in J/mol): KE=   1.833259E-15, PE=  -6.307888E-08, TE=  -6.307888E-08, Step=   490, Time=          0.490 fs
Ar     2.48597126     2.84575386     1.19223297
Ar     1.90082283     7.04549599     1.43796358

2
Energies (in J/mol): KE=   1.842959E-15, PE=  -6.307888E-08, TE=  -6.307888E-08, Step=   500, Time=          0.500 fs
Ar     2.48597126     2.84575386     1.19223297
Ar     1.90082283     7.04549599     1.43796358

2
Energies (in J/mol): KE=   1.852700E-15, PE=  -6.307888E-08, TE=  -6.307888E-08, Step=   510, Time=          0.510 fs
Ar     2.48597126     2.84575386     1.19223297
Ar     1.90082283     7.04549599     1.43796358

2
Energies (in J/mol): KE=   1.862481E-15, PE=  -6.307888E-08, TE=  -6.307888E-08, Step=   520, Time=          0.520 fs
Ar     2.48597126     2.84575386     1.19223297
Ar     1.90082283     7.04549599     1.43796358

2
Energies (in J/mol): KE=   1.872301E-15, PE=  -6.307888E-08, TE=  -6.307888E-08, Step=   530, Time=          0.530 fs
Ar     2.48597126     2.84575386     1.19223297
Ar     1.90082283     7.04549599     1.43796358

2
Energies (in J/mol): KE=   1.882161E-15, PE=  -6.307888E-08, TE=  -6.307888E-08, Step=   540, Time=          0.540 fs
Ar     2.48597126     2.84575386     1.19223297
Ar     1.90082283     7.04549599     1.43796358

2
Energies (in J/mol): KE=   1.892060E-15, PE=  -6.307888E-08, TE=  -6.307888E-08, Step=   550, Time=          0.550 fs
Ar     2.48597126     2.84575386     1.19223297
Ar     1.90082283     7.04549599     1.43796358

2
Energies (in J/mol): KE=   1.902000E-15, PE=  -6.307888E-08, TE=  -6.307888E-08, Step=   560, Time=          0.560 fs
Ar     2.48597126     2.84575386     1.19223297
Ar     1.90082283     7.04549599     1.43796358

2
Energies (in J/mol): KE=   1.911979E-15, PE=  -6.307888E-08, TE=  -6.307888E-08, Step=   570, Time=          0.570 fs
Ar     2.48597126     2.84575386     1.19223297
Ar     1.90082283     7.04549599     1.43796358

2
Energies (in J/mol): KE=   1.921998E-15, PE=  -6.307888E-08, TE=  -6.307888E-08, Step=   580, Time=          0.580 fs
Ar     2.48597126     2.84575386     1.19223297
Ar     1.90082283     7.04549599     1.43796358

2
Energies (in J/mol): KE=   1.932056E-15, PE=  -6.307888E-08, TE=  -6.307888E-08, Step=   590, Time=          0.590 fs
Ar     2.48597126     2.84575386     1.19223297
Ar     1.90082283     7.04549599     1.43796358

2
Energies (in J/mol): KE=   1.942155E-15, PE=  -6.307888E-08, TE=  -6.307888E-08, Step=   600, Time=          0.600 fs
Ar     2.48597126     2.84575386     1.19223297
Ar     1.90082283     7.04549599     1.43796358

2
Energies (in J/mol): KE=   1.952293E-15, PE=  -6.307888E-08, TE=  -6.307888E-08, Step=   610, Time=          0.610 fs
Ar     2.48597126     2.84575386     1.19223297
Ar     1.90082283     7.04549599     1.43796358

2
Energies (in J/mol): KE=   1.962471E-15, PE=  -6.307888E-08, TE=  -6.307888E-08, Step=   620, Time=          0.620 fs
Ar     2.48597126     2.84575386     1.19223297
Ar     1.90082283     7.04549599     1.43796358

2
Energies (in J/mol): KE=   1.972689E-15, PE=  -6.307888E-08, TE=  -6.307888E-08, Step=   630, Time=          0.630 fs
Ar     2.48597126     2.84575386     1.19223297
Ar     1.90082283     7.04549599     1.43796358

2
Energies (in J/mol): KE=   1.982946E-15, PE=  -6.307888E-08, TE=  -6.307888E-08, Step=   640, Time=          0.640 fs
Ar     2.48597126     2.84575386     1.19223297
Ar     1.90082283     7.04549599     1.43796358

2
Energies (in J/mol): KE=   1.993243E-15, PE=  -6.307888E-08, TE=  -6.307888E-08, Step=   650, Time=          0.650 fs
Ar     2.48597126     2.84575386     1.19223297
Ar     1.90082283     7.04549599     1.43796358

2
Energies (in J/mol): KE=   2.003580E-15, PE=  -6.307888E-08, TE=  -6.307888E-08, Step=   660, Time=          0.660 fs
Ar     2.48597126     2.84575386     1.19223297
Ar     1.90082283     7.04549599     1.43796358

2
Energies (in J/mol): KE=   2.013957E-15, PE=  -6.307888E-08, TE=  -6.307888E-08, Step=   670, Time=          0.670 fs
Ar     2.48597126     2.84575386     1.19223297
Ar     1.90082283     7.04549599     1.43796358

2
Energies (in J/mol): KE=   2.024373E-15, PE=  -6.307888E-08, TE=  -6.307888E-08, Step=   680, Time=          0.680 fs
Ar     2.48597126     2.84575386     1.19223297
Ar     1.90082283     7.04549599     1.43796358

2
Energies (in J/mol): KE=   2.034829E-15, PE=  -6.307888E-08, TE=  -6.307888E-08, Step=   690, Time=          0.690 fs
Ar     2.48597126     2.84575386     1.19223297
Ar     1.90082283     7.04549599     1.43796358

2
Energies (in J/mol): KE=   2.045325E-15, PE=  -6.307888E-08, TE=  -6.307888E-08, Step=   700, Time=          0.700 fs
Ar     2.48597126     2.84575386     1.19223297
Ar     1.90082283     7.04549599     1.43796358

2
Energies (in J/mol): KE=   2.055861E-15, PE=  -6.307888E-08, TE=  -6.307888E-08, Step=   710, Time=          0.710 fs
Ar     2.48597126     2.84575386     1.19223297
Ar     1.90082283     7.04549599     1.43796358

2
Energies (in J/mol): KE=   2.066437E-15, PE=  -6.307888E-08, TE=  -6.307888E-08, Step=   720, Time=          0.720 fs
Ar     2.48597126     2.84575386     1.19223297
Ar     1.90082283     7.04549599     1.43796358

2
Energies (in J/mol): KE=   2.077052E-15, PE=  -6.307888E-08, TE=  -6.307888E-08, Step=   730, Time=          0.730 fs
Ar     2.48597126     2.84575386     1.19223297
Ar     1.90082283     7.04549599     1.43796358

2
Energies (in J/mol): KE=   2.087707E-15, PE=  -6.307888E-08, TE=  -6.307888E-08, Step=   740, Time=          0.740 fs
Ar     2.48597126     2.84575386     1.19223297
Ar     1.90082283     7.04549599     1.43796358

2
Energies (in J/mol): KE=   2.098401E-15, PE=  -6.307888E-08, TE=  -6.307888E-08, Step=   750, Time=          0.750 fs
Ar     2.48597126     2.84575386     1.19223297
Ar     1.90082283     7.04549599     1.43796358

2
Energies (in J/mol): KE=   2.109136E-15, PE=  -6.307888E-08, TE=  -6.307888E-08, Step=   760, Time=          0.760 fs
Ar     2.48597126     2.84575386     1.19223297
Ar     1.90082283     7.04549599     1.43796358

2
Energies (in J/mol): KE=   2.119910E-15, PE=  -6.307888E-08, TE=  -6.307888E-08, Step=   770, Time=          0.770 fs
Ar     2.48597126     2.84575386     1.19223297
Ar     1.90082283     7.04549599     1.43796358

2
Energies (in J/mol): KE=   2.130724E-15, PE=  -6.307888E-08, TE=  -6.307888E-08, Step=   780, Time=          0.780 fs
Ar     2.48597126     2.84575386     1.19223297
Ar     1.90082283     7.04549599     1.43796358

2
Energies (in J/mol): KE=   2.141578E-15, PE=  -6.307888E-08, TE=  -6.307888E-08, Step=   790, Time=          0.790 fs
Ar     2.48597126     2.84575386     1.19223297
Ar     1.90082283     7.04549599     1.43796358

2
Energies (in J/mol): KE=   2.152471E-15, PE=  -6.307888E-08, TE=  -6.307888E-08, Step=   800, Time=          0.800 fs
Ar     2.48597126     2.84575386     1.19223297
Ar     1.90082283     7.04549599     1.43796358

2
Energies (in J/mol): KE=   2.163404E-15, PE=  -6.307888E-08, TE=  -6.307888E-08, Step=   810, Time=          0.810 fs
Ar     2.48597126     2.84575386     1.19223297
Ar     1.90082283     7.04549599     1.43796358

2
Energies (in J/mol): KE=   2.174377E-15, PE=  -6.307888E-08, TE=  -6.307888E-08, Step=   820, Time=          0.820 fs
Ar     2.48597126     2.84575386     1.19223297
Ar     1.90082283     7.04549599     1.43796358

2
Energies (in J/mol): KE=   2.185390E-15, PE=  -6.307888E-08, TE=  -6.307888E-08, Step=   830, Time=          0.830 fs
Ar     2.48597126     2.84575386     1.19223297
Ar     1.90082283     7.04549599     1.43796358

2
Energies (in J/mol): KE=   2.196442E-15, PE=  -6.307888E-08, TE=  -6.307888E-08, Step=   840, Time=          0.840 fs
Ar     2.48597126     2.84575386     1.19223297
Ar     1.90082283     7.04549599     1.43796358

2
Energies (in J/mol): KE=   2.207535E-15, PE=  -6.307888E-08, TE=  -6.307888E-08, Step=   850, Time=          0.850 fs
Ar     2.48597126     2.84575387     1.19223297
Ar     1.90082283     7.04549599     1.43796358

2
Energies (in J/mol): KE=   2.218667E-15, PE=  -6.307888E-08, TE=  -6.307888E-08, Step=   860, Time=          0.860 fs
Ar     2.48597126     2.84575387     1.19223297
Ar     1.90082283     7.04549599     1.43796358

2
Energies (in J/mol): KE=   2.229838E-15, PE=  -6.307888E-08, TE=  -6.307888E-08, Step=   870, Time=          0.870 fs
Ar     2.48597126     2.84575387     1.19223297
Ar     1.90082283     7.04549599     1.43796358

2
Energies (in J/mol): KE=   2.241050E-15, PE=  -6.307888E-08, TE=  -6.307888E-08, Step=   880, Time=          0.880 fs
Ar     2.48597126     2.84575387     1.19223297
Ar     1.90082283     7.04549599     1.43796358

2
Energies (in J/mol): KE=   2.252301E-15, PE=  -6.307888E-08, TE=  -6.307888E-08, Step=   890, Time=          0.890 fs
Ar     2.48597126     2.84575387     1.19223297
Ar     1.90082283     7.04549599     1.43796358

2
Energies (in J/mol): KE=   2.263592E-15, PE=  -6.307888E-08, TE=  -6.307888E-08, Step=   900, Time=          0.900 fs
Ar     2.48597126     2.84575387     1.19223297
Ar     1.90082283     7.04549599     1.43796358

2
Energies (in J/mol): KE=   2.274923E-15, PE=  -6.307888E-08, TE=  -6.307888E-08, Step=   910, Time=          0.910 fs
Ar     2.48597126     2.84575387     1.19223297
Ar     1.90082283     7.04549599     1.43796358

2
Energies (in J/mol): KE=   2.286293E-15, PE=  -6.307888E-08, TE=  -6.307888E-08, Step=   920, Time=          0.920 fs
Ar     2.48597126     2.84575387     1.19223297
Ar     1.90082283     7.04549599     1.43796358

2
Energies (in J/mol): KE=   2.297703E-15, PE=  -6.307888E-08, TE=  -6.307888E-08, Step=   930, Time=          0.930 fs
Ar     2.48597126     2.84575387     1.19223297
Ar     1.90082283     7.04549599     1.43796358

2
Energies (in J/mol): KE=   2.309153E-15, PE=  -6.307888E-08, TE=  -6.307888E-08, Step=   940, Time=          0.940 fs
Ar     2.48597126     2.84575387     1.19223297
Ar     1.90082283     7.04549599     1.43796358

2
Energies (in J/mol): KE=   2.320643E-15, PE=  -6.307888E-08, TE=  -6.307888E-08, Step=   950, Time=          0.950 fs
Ar     2.48597126     2.84575387     1.19223297
Ar     1.90082283     7.04549599     1.43796358

2
Energies (in J/mol): KE=   2.332173E-15, PE=  -6.307888E-08, TE=  -6.307888E-08, Step=   960, Time=          0.960 fs
Ar     2.48597126     2.84575387     1.19223297
Ar     1.90082283     7.04549599     1.43796358

2
Energies (in J/mol): KE=   2.343742E-15, PE=  -6.307888E-08, TE=  -6.307888E-08, Step=   970, Time=          0.970 fs
Ar     2.48597126     2.84575387     1.19223297
Ar     1.90082283     7.04549599     1.43796358

2
Energies (in J/mol): KE=   2.355351E-15, PE=  -6.307888E-08, TE=  -6.307888E-08, Step=   980, Time=          0.980 fs
Ar     2.48597126     2.84575387     1.19223297
Ar     1.90082283     7.04549599     1.43796358

2
Energies (in J/mol): KE=   2.366999E-15, PE=  -6.307888E-08, TE=  -6.307888E-08, Step=   990, Time=          0.990 fs
Ar     2.48597126     2.84575387     1.19223297
Ar     1.90082283     7.04549599     1.43796358

2
Energies (in J/mol): KE=   2.378688E-15, PE=  -6.307888E-08, TE=  -6.307888E-08, Step=  1000, Time=          1.000 fs
Ar     2.48597126     2.84575387     1.19223297
Ar     1.90082283     7.04549599     1.43796358

